*SPEF "ieee 1481-1999"
*DESIGN "demux_1_to_8"
*DATE "14:16:31 Friday March 21, 2025"
*VENDOR "The OpenROAD Project"
*PROGRAM "OpenROAD"
*VERSION "v2.0-17598-ga008522d8"
*DESIGN_FLOW "NAME_SCOPE LOCAL" "PIN_CAP NONE"
*DIVIDER /
*DELIMITER :
*BUS_DELIMITER []
*T_UNIT 1 NS
*C_UNIT 1 PF
*R_UNIT 1 OHM
*L_UNIT 1 HENRY

*NAME_MAP
*1 d
*2 s0
*3 s1
*4 s2
*5 net5
*6 net6
*7 net7
*8 net8
*9 net9
*10 net10
*11 net11
*12 net12
*15 net1
*16 net2
*17 net3
*18 net4
*19 y0
*20 y1
*21 y2
*22 y3
*23 y4
*24 y5
*25 y6
*26 y7
*27 _0_
*28 _1_
*29 _2_
*30 _3_
*31 _4_
*32 _5_
*33 _6_
*34 _7_
*35 TAP_TAPCELL_ROW_0_0
*36 TAP_TAPCELL_ROW_0_1
*37 TAP_TAPCELL_ROW_1_2
*38 TAP_TAPCELL_ROW_2_3
*39 TAP_TAPCELL_ROW_3_4
*40 TAP_TAPCELL_ROW_4_5
*41 TAP_TAPCELL_ROW_5_6
*42 TAP_TAPCELL_ROW_6_7
*43 TAP_TAPCELL_ROW_7_8
*44 TAP_TAPCELL_ROW_8_9
*45 TAP_TAPCELL_ROW_9_10
*46 TAP_TAPCELL_ROW_10_11
*47 TAP_TAPCELL_ROW_11_12
*48 TAP_TAPCELL_ROW_11_13
*49 input1
*50 input2
*51 input3
*52 input4
*53 output5
*54 output6
*55 output7
*56 output8
*57 output9
*58 output10
*59 output11
*60 output12
*61 FILLER_0_0
*62 FILLER_0_8
*63 FILLER_0_16
*64 FILLER_0_24
*65 FILLER_0_28
*66 FILLER_0_31
*67 FILLER_0_39
*68 FILLER_0_47
*69 FILLER_0_55
*70 FILLER_0_59
*71 FILLER_0_61
*72 FILLER_0_69
*73 FILLER_0_73
*74 FILLER_1_0
*75 FILLER_1_8
*76 FILLER_1_16
*77 FILLER_1_24
*78 FILLER_1_32
*79 FILLER_1_40
*80 FILLER_1_48
*81 FILLER_1_56
*82 FILLER_1_61
*83 FILLER_1_69
*84 FILLER_1_73
*85 FILLER_2_0
*86 FILLER_2_8
*87 FILLER_2_16
*88 FILLER_2_24
*89 FILLER_2_28
*90 FILLER_2_31
*91 FILLER_2_39
*92 FILLER_2_47
*93 FILLER_2_55
*94 FILLER_2_63
*95 FILLER_2_71
*96 FILLER_2_73
*97 FILLER_3_0
*98 FILLER_3_8
*99 FILLER_3_16
*100 FILLER_3_24
*101 FILLER_3_32
*102 FILLER_3_40
*103 FILLER_3_48
*104 FILLER_3_56
*105 FILLER_3_61
*106 FILLER_3_69
*107 FILLER_3_73
*108 FILLER_4_0
*109 FILLER_4_8
*110 FILLER_4_16
*111 FILLER_4_24
*112 FILLER_4_28
*113 FILLER_4_31
*114 FILLER_4_39
*115 FILLER_4_47
*116 FILLER_4_55
*117 FILLER_4_63
*118 FILLER_5_20
*119 FILLER_5_32
*120 FILLER_5_40
*121 FILLER_5_44
*122 FILLER_5_64
*123 FILLER_5_68
*124 FILLER_5_70
*125 FILLER_6_9
*126 FILLER_6_31
*127 FILLER_6_46
*128 FILLER_6_67
*129 FILLER_6_69
*130 FILLER_7_0
*131 FILLER_7_8
*132 FILLER_7_16
*133 FILLER_7_24
*134 FILLER_7_32
*135 FILLER_7_40
*136 FILLER_7_48
*137 FILLER_7_52
*138 FILLER_7_57
*139 FILLER_7_59
*140 FILLER_7_61
*141 FILLER_7_69
*142 FILLER_7_73
*143 FILLER_8_0
*144 FILLER_8_8
*145 FILLER_8_16
*146 FILLER_8_24
*147 FILLER_8_28
*148 FILLER_8_31
*149 FILLER_8_39
*150 FILLER_8_47
*151 FILLER_8_55
*152 FILLER_8_63
*153 FILLER_8_71
*154 FILLER_8_73
*155 FILLER_9_0
*156 FILLER_9_8
*157 FILLER_9_16
*158 FILLER_9_24
*159 FILLER_9_32
*160 FILLER_9_40
*161 FILLER_9_48
*162 FILLER_9_56
*163 FILLER_9_61
*164 FILLER_9_69
*165 FILLER_9_73
*166 FILLER_10_0
*167 FILLER_10_8
*168 FILLER_10_16
*169 FILLER_10_24
*170 FILLER_10_28
*171 FILLER_10_31
*172 FILLER_10_39
*173 FILLER_10_47
*174 FILLER_10_55
*175 FILLER_10_63
*176 FILLER_10_71
*177 FILLER_10_73
*178 FILLER_11_0
*179 FILLER_11_8
*180 FILLER_11_16
*181 FILLER_11_24
*182 FILLER_11_28
*183 FILLER_11_31
*184 FILLER_11_35
*185 FILLER_11_37
*186 FILLER_11_41
*187 FILLER_11_49
*188 FILLER_11_57
*189 FILLER_11_59
*190 FILLER_11_61
*191 FILLER_11_69
*192 FILLER_11_73

*PORTS
d I
s0 I
s1 I
s2 I
y0 O
y1 O
y2 O
y3 O
y4 O
y5 O
y6 O
y7 O

*D_NET *1 0.000672539
*CONN
*P d I
*I *49:A I *D sky130_fd_sc_hd__dlymetal6s2s_1
*CAP
1 d 0.000274286
2 *49:A 0.000274286
3 *49:A y5 0
4 *49:A y7 0.000123966
*RES
1 d *49:A 18.4011 
*END

*D_NET *2 0.000263837
*CONN
*P s0 I
*I *50:A I *D sky130_fd_sc_hd__dlymetal6s2s_1
*CAP
1 s0 9.70887e-05
2 *50:A 9.70887e-05
3 *50:A *52:A 6.96594e-05
*RES
1 s0 *50:A 18.5432 
*END

*D_NET *3 0.000575505
*CONN
*P s1 I
*I *51:A I *D sky130_fd_sc_hd__clkbuf_2
*CAP
1 s1 0.000168826
2 *51:A 0.000168826
3 *51:A y3 0
4 *51:A y5 0.00012233
5 *51:A y7 0.000115524
6 *51:A *30:C 0
*RES
1 s1 *51:A 19.942 
*END

*D_NET *4 0.00188817
*CONN
*P s2 I
*I *52:A I *D sky130_fd_sc_hd__dlymetal6s2s_1
*CAP
1 s2 0.000403157
2 *52:A 0.000403157
3 *52:A y2 0.000226714
4 *52:A *29:C 6.50727e-05
5 *52:A *31:B_N 0.000214868
6 *52:A *57:A 0.000167923
7 *52:A *15:41 0.000321905
8 *52:A *16:14 1.5714e-05
9 *50:A *52:A 6.96594e-05
*RES
1 s2 *52:A 25.3016 
*END

*D_NET *5 0.00140119
*CONN
*I *53:A I *D sky130_fd_sc_hd__clkbuf_1
*I *27:Y O *D sky130_fd_sc_hd__nor4b_1
*CAP
1 *53:A 0.000700593
2 *27:Y 0.000700593
3 *53:A *32:C 0
*RES
1 *27:Y *53:A 45.0028 
*END

*D_NET *6 0.00235276
*CONN
*I *54:A I *D sky130_fd_sc_hd__clkbuf_1
*I *28:X O *D sky130_fd_sc_hd__and4bb_1
*CAP
1 *54:A 0.00030252
2 *28:X 0.00030252
3 *54:A *29:A_N 0.000330596
4 *54:A *55:A 0.000593901
5 *54:A *57:A 0
6 *54:A *16:25 0.000340541
7 *54:A *16:36 0.000117376
8 *54:A *18:30 0.000210197
9 *54:A *18:45 0.00015511
*RES
1 *28:X *54:A 34.0513 
*END

*D_NET *7 0.0011813
*CONN
*I *55:A I *D sky130_fd_sc_hd__clkbuf_1
*I *29:X O *D sky130_fd_sc_hd__and4bb_1
*CAP
1 *55:A 7.85089e-05
2 *29:X 7.85089e-05
3 *55:A *16:25 0.00043038
4 *54:A *55:A 0.000593901
*RES
1 *29:X *55:A 24.7677 
*END

*D_NET *8 0.000341837
*CONN
*I *56:A I *D sky130_fd_sc_hd__clkbuf_1
*I *30:X O *D sky130_fd_sc_hd__and4b_1
*CAP
1 *56:A 8.1409e-05
2 *30:X 8.1409e-05
3 *56:A *17:6 0.000169041
4 *56:A *17:16 9.9774e-06
*RES
1 *30:X *56:A 21.3195 
*END

*D_NET *9 0.0020287
*CONN
*I *57:A I *D sky130_fd_sc_hd__clkbuf_1
*I *31:X O *D sky130_fd_sc_hd__and4bb_1
*CAP
1 *57:A 0.000844254
2 *31:X 0.000844254
3 *57:A *31:B_N 0.000111708
4 *57:A *16:8 6.05623e-05
5 *52:A *57:A 0.000167923
6 *54:A *57:A 0
*RES
1 *31:X *57:A 33.8102 
*END

*D_NET *10 0.00118054
*CONN
*I *58:A I *D sky130_fd_sc_hd__clkbuf_1
*I *32:X O *D sky130_fd_sc_hd__and4b_1
*CAP
1 *58:A 0.000287768
2 *32:X 0.000287768
3 *58:A *32:D 6.50586e-05
4 *58:A *34:B 4.82966e-05
5 *58:A *60:A 0.000218567
6 *58:A *15:20 0.000263248
7 *58:A *15:24 9.82896e-06
*RES
1 *32:X *58:A 25.9252 
*END

*D_NET *11 0.000342131
*CONN
*I *59:A I *D sky130_fd_sc_hd__clkbuf_1
*I *33:X O *D sky130_fd_sc_hd__and4b_1
*CAP
1 *59:A 0.000138577
2 *33:X 0.000138577
3 *59:A y3 0
4 *59:A y6 3.34802e-05
5 *59:A *30:B 3.14978e-05
*RES
1 *33:X *59:A 30.8842 
*END

*D_NET *12 0.000925788
*CONN
*I *60:A I *D sky130_fd_sc_hd__clkbuf_1
*I *34:X O *D sky130_fd_sc_hd__and4_1
*CAP
1 *60:A 0.00035361
2 *34:X 0.00035361
3 *58:A *60:A 0.000218567
*RES
1 *34:X *60:A 27.0103 
*END

*D_NET *15 0.00668198
*CONN
*I *27:D_N I *D sky130_fd_sc_hd__nor4b_1
*I *30:C I *D sky130_fd_sc_hd__and4b_1
*I *34:C I *D sky130_fd_sc_hd__and4_1
*I *33:B I *D sky130_fd_sc_hd__and4b_1
*I *28:C I *D sky130_fd_sc_hd__and4bb_1
*I *31:C I *D sky130_fd_sc_hd__and4bb_1
*I *29:C I *D sky130_fd_sc_hd__and4bb_1
*I *32:B I *D sky130_fd_sc_hd__and4b_1
*I *49:X O *D sky130_fd_sc_hd__dlymetal6s2s_1
*CAP
1 *27:D_N 3.05044e-05
2 *30:C 0.000202174
3 *34:C 0
4 *33:B 0.000132002
5 *28:C 0.00016748
6 *31:C 0
7 *29:C 0.000161708
8 *32:B 0
9 *49:X 0.000276744
10 *15:41 0.000286957
11 *15:35 0.000767083
12 *15:26 0.000493595
13 *15:24 0.000153814
14 *15:20 0.000141189
15 *15:12 0.00058703
16 *27:D_N *30:B 0.000103983
17 *27:D_N *16:43 0.000228593
18 *27:D_N *16:50 4.88955e-05
19 *27:D_N *18:54 0.000381471
20 *28:C *31:B_N 0
21 *28:C *18:45 1.87469e-05
22 *29:C *31:B_N 3.14978e-05
23 *29:C *16:14 0
24 *29:C *16:25 6.50727e-05
25 *29:C *18:10 2.22342e-05
26 *29:C *18:21 3.25394e-05
27 *30:C y3 2.1203e-06
28 *30:C y5 6.01329e-05
29 *30:C *17:6 6.2452e-06
30 *30:C *17:16 3.33292e-05
31 *33:B *32:C 3.34802e-05
32 *33:B *17:41 0
33 *33:B *18:76 4.27148e-05
34 *15:12 y7 0
35 *15:20 *17:35 2.83665e-05
36 *15:24 *34:B 0.000224395
37 *15:24 *17:35 0.000265537
38 *15:26 *34:B 0.000118166
39 *15:26 *17:35 0.000175485
40 *15:35 *17:35 6.81122e-05
41 *15:35 *17:41 0.000224395
42 *15:41 *31:B_N 1.67988e-05
43 *15:41 *18:10 0.000389333
44 *51:A *30:C 0
45 *52:A *29:C 6.50727e-05
46 *52:A *15:41 0.000321905
47 *58:A *15:20 0.000263248
48 *58:A *15:24 9.82896e-06
*RES
1 *49:X *15:12 19.9322 
2 *15:12 *15:20 8.74392 
3 *15:20 *15:24 3.52053 
4 *15:24 *15:26 1.8326 
5 *15:26 *32:B 9.24915 
6 *15:26 *15:35 12.9488 
7 *15:35 *15:41 6.46234 
8 *15:41 *29:C 22.3584 
9 *15:41 *31:C 9.24915 
10 *15:35 *28:C 21.7421 
11 *15:24 *33:B 20.9116 
12 *15:20 *34:C 9.24915 
13 *15:12 *30:C 17.6896 
14 *33:B *27:D_N 22.5493 
*END

*D_NET *16 0.00592963
*CONN
*I *34:B I *D sky130_fd_sc_hd__and4_1
*I *31:A_N I *D sky130_fd_sc_hd__and4bb_1
*I *30:B I *D sky130_fd_sc_hd__and4b_1
*I *32:C I *D sky130_fd_sc_hd__and4b_1
*I *33:A_N I *D sky130_fd_sc_hd__and4b_1
*I *27:B I *D sky130_fd_sc_hd__nor4b_1
*I *28:D I *D sky130_fd_sc_hd__and4bb_1
*I *29:B_N I *D sky130_fd_sc_hd__and4bb_1
*I *50:X O *D sky130_fd_sc_hd__dlymetal6s2s_1
*CAP
1 *34:B 4.48163e-05
2 *31:A_N 0
3 *30:B 0.000167131
4 *32:C 0.000162835
5 *33:A_N 0
6 *27:B 0
7 *28:D 0
8 *29:B_N 0
9 *50:X 0.000183656
10 *16:50 0.000307868
11 *16:43 0.000110685
12 *16:36 0.000297172
13 *16:25 0.000388598
14 *16:14 0.000366903
15 *16:8 0.000371166
16 *30:B *30:A_N 7.03723e-05
17 *30:B *33:C 1.00846e-05
18 *30:B *17:16 3.98841e-05
19 *30:B *18:54 4.78729e-05
20 *32:C *27:C 0
21 *32:C *17:41 0
22 *32:C *18:76 0
23 *34:B *32:D 0.00015461
24 *16:8 *31:B_N 0.000118166
25 *16:14 y1 0
26 *16:14 *18:21 0
27 *16:25 *28:B_N 1.09551e-05
28 *16:25 *29:D 6.08467e-05
29 *16:25 *17:45 7.24449e-05
30 *16:25 *17:47 0.000142328
31 *16:25 *18:45 0.000163428
32 *16:36 *27:A 3.01683e-06
33 *16:36 *18:45 0.000719544
34 *16:43 *18:45 2.41483e-05
35 *16:43 *18:54 2.41483e-05
36 *27:D_N *30:B 0.000103983
37 *27:D_N *16:43 0.000228593
38 *27:D_N *16:50 4.88955e-05
39 *29:C *16:14 0
40 *29:C *16:25 6.50727e-05
41 *33:B *32:C 3.34802e-05
42 *52:A *16:14 1.5714e-05
43 *53:A *32:C 0
44 *54:A *16:25 0.000340541
45 *54:A *16:36 0.000117376
46 *55:A *16:25 0.00043038
47 *57:A *16:8 6.05623e-05
48 *58:A *34:B 4.82966e-05
49 *59:A *30:B 3.14978e-05
50 *15:24 *34:B 0.000224395
51 *15:26 *34:B 0.000118166
*RES
1 *50:X *16:8 14.4335 
2 *16:8 *16:14 12.493 
3 *16:14 *29:B_N 9.24915 
4 *16:14 *16:25 9.78996 
5 *16:25 *28:D 9.24915 
6 *16:25 *16:36 9.23536 
7 *16:36 *27:B 9.24915 
8 *16:36 *16:43 3.49641 
9 *16:43 *33:A_N 9.24915 
10 *16:43 *16:50 0.723396 
11 *16:50 *32:C 20.9116 
12 *16:50 *30:B 14.964 
13 *16:8 *31:A_N 9.24915 
14 *32:C *34:B 21.9947 
*END

*D_NET *17 0.00810208
*CONN
*I *30:D I *D sky130_fd_sc_hd__and4b_1
*I *34:D I *D sky130_fd_sc_hd__and4_1
*I *32:A_N I *D sky130_fd_sc_hd__and4b_1
*I *27:C I *D sky130_fd_sc_hd__nor4b_1
*I *28:B_N I *D sky130_fd_sc_hd__and4bb_1
*I *31:B_N I *D sky130_fd_sc_hd__and4bb_1
*I *29:D I *D sky130_fd_sc_hd__and4bb_1
*I *33:C I *D sky130_fd_sc_hd__and4b_1
*I *51:X O *D sky130_fd_sc_hd__clkbuf_2
*CAP
1 *30:D 0
2 *34:D 0
3 *32:A_N 0
4 *27:C 5.62498e-05
5 *28:B_N 1.81917e-05
6 *31:B_N 0.000448937
7 *29:D 4.51842e-05
8 *33:C 0.000170887
9 *51:X 0.000257019
10 *17:47 0.000587492
11 *17:45 0.000730888
12 *17:41 0.000856899
13 *17:35 0.000509065
14 *17:27 0.000426935
15 *17:16 0.0004218
16 *17:6 0.00040874
17 *31:B_N *18:10 0.000140146
18 *31:B_N *18:21 9.60216e-05
19 *33:C *30:A_N 0.000144414
20 *33:C *18:54 7.7735e-05
21 *17:16 *30:A_N 4.80635e-06
22 *17:45 *18:45 0.000890604
23 *28:C *31:B_N 0
24 *29:C *31:B_N 3.14978e-05
25 *30:B *33:C 1.00846e-05
26 *30:B *17:16 3.98841e-05
27 *30:C *17:6 6.2452e-06
28 *30:C *17:16 3.33292e-05
29 *32:C *27:C 0
30 *32:C *17:41 0
31 *33:B *17:41 0
32 *52:A *31:B_N 0.000214868
33 *56:A *17:6 0.000169041
34 *56:A *17:16 9.9774e-06
35 *57:A *31:B_N 0.000111708
36 *15:20 *17:35 2.83665e-05
37 *15:24 *17:35 0.000265537
38 *15:26 *17:35 0.000175485
39 *15:35 *17:35 6.81122e-05
40 *15:35 *17:41 0.000224395
41 *15:41 *31:B_N 1.67988e-05
42 *16:8 *31:B_N 0.000118166
43 *16:25 *28:B_N 1.09551e-05
44 *16:25 *29:D 6.08467e-05
45 *16:25 *17:45 7.24449e-05
46 *16:25 *17:47 0.000142328
*RES
1 *51:X *17:6 15.9225 
2 *17:6 *17:16 4.44286 
3 *17:16 *33:C 12.191 
4 *17:16 *17:27 6.332 
5 *17:27 *17:35 13.3195 
6 *17:35 *17:41 9.54971 
7 *17:41 *17:45 15.7609 
8 *17:45 *17:47 1.8326 
9 *17:47 *29:D 9.97254 
10 *17:47 *31:B_N 30.3264 
11 *17:45 *28:B_N 9.82786 
12 *17:41 *27:C 14.7506 
13 *17:35 *32:A_N 9.24915 
14 *17:27 *34:D 13.7491 
15 *17:6 *30:D 9.24915 
*END

*D_NET *18 0.00634117
*CONN
*I *34:A I *D sky130_fd_sc_hd__and4_1
*I *32:D I *D sky130_fd_sc_hd__and4b_1
*I *30:A_N I *D sky130_fd_sc_hd__and4b_1
*I *33:D I *D sky130_fd_sc_hd__and4b_1
*I *27:A I *D sky130_fd_sc_hd__nor4b_1
*I *28:A_N I *D sky130_fd_sc_hd__and4bb_1
*I *29:A_N I *D sky130_fd_sc_hd__and4bb_1
*I *31:D I *D sky130_fd_sc_hd__and4bb_1
*I *52:X O *D sky130_fd_sc_hd__dlymetal6s2s_1
*CAP
1 *34:A 0
2 *32:D 4.20178e-05
3 *30:A_N 3.41294e-05
4 *33:D 0
5 *27:A 1.93962e-05
6 *28:A_N 0
7 *29:A_N 0.000107071
8 *31:D 0
9 *52:X 0.000161286
10 *18:76 0.000136121
11 *18:54 0.000298953
12 *18:45 0.00043493
13 *18:30 0.000317694
14 *18:21 0.000299684
15 *18:10 0.000281019
16 *27:D_N *18:54 0.000381471
17 *28:C *18:45 1.87469e-05
18 *29:C *18:10 2.22342e-05
19 *29:C *18:21 3.25394e-05
20 *30:B *30:A_N 7.03723e-05
21 *30:B *18:54 4.78729e-05
22 *31:B_N *18:10 0.000140146
23 *31:B_N *18:21 9.60216e-05
24 *32:C *18:76 0
25 *33:B *18:76 4.27148e-05
26 *33:C *30:A_N 0.000144414
27 *33:C *18:54 7.7735e-05
28 *34:B *32:D 0.00015461
29 *54:A *29:A_N 0.000330596
30 *54:A *18:30 0.000210197
31 *54:A *18:45 0.00015511
32 *58:A *32:D 6.50586e-05
33 *15:41 *18:10 0.000389333
34 *16:14 *18:21 0
35 *16:25 *18:45 0.000163428
36 *16:36 *27:A 3.01683e-06
37 *16:36 *18:45 0.000719544
38 *16:43 *18:45 2.41483e-05
39 *16:43 *18:54 2.41483e-05
40 *17:16 *30:A_N 4.80635e-06
41 *17:45 *18:45 0.000890604
*RES
1 *52:X *18:10 19.4942 
2 *18:10 *31:D 13.7491 
3 *18:10 *18:21 7.993 
4 *18:21 *29:A_N 12.7456 
5 *18:21 *18:30 2.38721 
6 *18:30 *28:A_N 9.24915 
7 *18:30 *18:45 22.9556 
8 *18:45 *27:A 9.82786 
9 *18:45 *18:54 5.86554 
10 *18:54 *33:D 9.24915 
11 *18:54 *30:A_N 11.5098 
12 *18:54 *18:76 11.2472 
13 *18:76 *32:D 10.931 
14 *18:76 *34:A 9.24915 
*END

*D_NET *19 0.000274601
*CONN
*P y0 O
*I *53:X O *D sky130_fd_sc_hd__clkbuf_1
*CAP
1 y0 0.0001373
2 *53:X 0.0001373
*RES
1 *53:X y0 16.4267 
*END

*D_NET *20 0.000603556
*CONN
*P y1 O
*I *54:X O *D sky130_fd_sc_hd__clkbuf_1
*CAP
1 y1 0.000241151
2 *54:X 0.000241151
3 y1 y2 3.12825e-05
4 y1 y4 8.99722e-05
5 *16:14 y1 0
*RES
1 *54:X y1 20.8489 
*END

*D_NET *21 0.000574708
*CONN
*P y2 O
*I *55:X O *D sky130_fd_sc_hd__clkbuf_1
*CAP
1 y2 0.000124348
2 *55:X 0.000124348
3 y2 y4 6.80165e-05
4 y1 y2 3.12825e-05
5 *52:A y2 0.000226714
*RES
1 *55:X y2 18.1717 
*END

*D_NET *22 0.00100255
*CONN
*P y3 O
*I *56:X O *D sky130_fd_sc_hd__clkbuf_1
*CAP
1 y3 0.000351251
2 *56:X 0.000351251
3 y3 y6 0.000297932
4 *30:C y3 2.1203e-06
5 *51:A y3 0
6 *59:A y3 0
*RES
1 *56:X y3 21.3079 
*END

*D_NET *23 0.000371335
*CONN
*P y4 O
*I *57:X O *D sky130_fd_sc_hd__clkbuf_1
*CAP
1 y4 0.000106673
2 *57:X 0.000106673
3 y1 y4 8.99722e-05
4 y2 y4 6.80165e-05
*RES
1 *57:X y4 18.9585 
*END

*D_NET *24 0.00120204
*CONN
*P y5 O
*I *58:X O *D sky130_fd_sc_hd__clkbuf_1
*CAP
1 y5 0.000343276
2 *58:X 0.000343276
3 y5 y6 0.000333028
4 *30:C y5 6.01329e-05
5 *49:A y5 0
6 *51:A y5 0.00012233
*RES
1 *58:X y5 19.4611 
*END

*D_NET *25 0.00190275
*CONN
*P y6 O
*I *59:X O *D sky130_fd_sc_hd__clkbuf_1
*CAP
1 y6 0.000619154
2 *59:X 0.000619154
3 y3 y6 0.000297932
4 y5 y6 0.000333028
5 *59:A y6 3.34802e-05
*RES
1 *59:X y6 20.827 
*END

*D_NET *26 0.000360508
*CONN
*P y7 O
*I *60:X O *D sky130_fd_sc_hd__clkbuf_1
*CAP
1 y7 6.05087e-05
2 *60:X 6.05087e-05
3 *49:A y7 0.000123966
4 *51:A y7 0.000115524
5 *15:12 y7 0
*RES
1 *60:X y7 17.8657 
*END
